VERSION 17
*TRNSED
*******************************************************************************
*** TRNSYS input file (deck) generated by TrnsysStudio
*** on tirsdag, april 25, 2017 at 16:12
*** from TrnsysStudio project: C:\Trnsys17\MyProjects\Marstal11117\Sunstore4_v1-5-01_course11117.TPF
*** 
*** If you edit this file, use the File/Import TRNSYS Input File function in 
*** TrnsysStudio to update the project. 
*** 
*** If you have problems, questions or suggestions please contact your local 
*** TRNSYS distributor or mailto:software@cstb.fr 
*** 
*******************************************************************************
*******************************************************************************
*|<BACKGROUND> rgb(239,236,255)
*|<img src="Images\SUNSTORE4-scheme.jpg" align="center">
*|<COLOR1> rgb(204,0,0)
*|<SIZE1> 20
*|<ALIGN1> CENTER
*|<STYLE1> ITALIC BOLD
*|[HEADER|
*|* A CALCULATION PROGRAM OF A SOLAR HEATING PLANT
*|<SIZE1> 12
*|*  (Jianhua Fan, DTU)
*|<SIZE1> 10
*
*
*
*
*
*
*
*
*
*
*
*
*
*
*
*
*
*|*Last updated: 11.11.2019
*
*|<STYLE1> NORMAL
*|<COLOR1> NAVY
*|<SIZE1> 10
*|* This is a Trnsys simulation program of a typical solar heating plant. 
*|*   The program should only be used for course 47330 at DTU. 
*|]
 
*|<COLOR1> rgb(204,0,0)
*|<ALIGN1> LEFT
*|<STYLE1> BOLD
*|<SIZE1> 12
*|*
*
*
*******************************************************************************
*|[ NRcon | The district heating net 
CONSTANTS  4
   Demand_net= 6.0820000000000E+04
*|Demand of the district heating net      |MWh|-|0|1|1000|6400000.0|997
   Deghours_sum= 7.7560000000000E+04
*|Sum of degree*hour per year      |-|-|0|1|30000|150000|997
   T_net_forward= 7.0000000000000E+01
*|Forward temperature to the net      |C|-|0|1|50|100|997
   T_net_return= 4.0000000000000E+01
*|Return temperature from the net     |C|-|0|1|20|80|997
*|]
*
*******************************************************************************
*
*|[ NRcon | Solar collector 
CONSTANTS  14
   coll1_area = 9.0430000000000E+03
*|Collector field 1: Area      |m^2|-|0|1|1000|1000000.0|997
   coll1_eta0 = 7.6000000000000E-01
*|Collector field 1: n0      |-|-|0|1|0.0001|1.00|997
   coll1_a1 = 1.2600000000000E+01
*|Collector field 1: a_1 (1 W/m^2.K=3.6 kJ/hr.m^2.K)  |kJ/hr.m^2.K|-|0|1|0.1|50.00|997
   coll1_a2 = 7.0000000000000E-03
*|Collector field 1: a_2 (1 W/m^2.K^2=3.6 kJ/hr.m^2.K^2)    |kJ/hr.m^2.K^2|-|0|1|0.0|50.000|997
   coll2_area = 9.1240000000000E+03
*|Collector field 2: Area      |m^2|-|0|1|1000|1000000.0|997
   coll2_eta0 = 8.1000000000000E-01
*|Collector field 2: n0      |-|-|0|1|0.0001|1.00|997
   coll2_a1 = 9.2500000000000E+00
*|Collector field 2: a_1 (1 W/m^2.K=3.6 kJ/hr.m^2.K)  |kJ/hr.m^2.K|-|0|1|0.1|50.00|997
   coll2_a2 = 2.8000000000000E-02
*|Collector field 2: a_2 (1 W/m^2.K^2=3.6 kJ/hr.m^2.K^2)    |kJ/hr.m^2.K^2|-|0|1|0.0|50.000|997
   coll3_area = 1.5000000000000E+04
*|Collector field 3: Area      |m^2|-|0|1|1000|1000000.0|997
   coll3_eta0 = 8.5000000000000E-01
*|Collector field 3: n0      |-|-|0|1|0.0001|1.00|997
   coll3_a1 = 1.1050000000000E+01
*|Collector field 3: a_1 (1 W/m^2.K=3.6 kJ/hr.m^2.K)  |kJ/hr.m^2.K|-|0|1|0.1|50.00|997
   coll3_a2 = 3.6000000000000E-02
*|Collector field 3: a_2 (1 W/m^2.K^2=3.6 kJ/hr.m^2.K^2)    |kJ/hr.m^2.K^2|-|0|1|0.0|50.000|997
   collector_slope = 3.5000000000000E+01
*|All collector fields: Collector slop      |degree|-|0|1|0|90|997
   row_distance = 4.5000000000000E+00
*|All collector fields: Row distance      |m|-|0|1|3|8.0|997
*
*|]
*
*******************************************************************************
*|[ NRcon | Water pit heat storage
CONSTANTS  5
   V_pit = 6.0000000000000E+04
*|Volume of water pit      |m^3|-|0|1|5000|2000000|997
   h-d-ratio_pit= 7.0500000000000E-02
*|Height to diameter ratio      |-|-|0|1|0.001|1.0000|997
   Thick_insu_pit= 2.0000000000000E-01
*|Thickness of insulation on the top of pit      |m|-|0|1|0.01|5.00|997
   Lamda_insu_pit= 1.6000000000000E-01
*|Thermal conductivity of insulation (1 W/m.K= 3.6 kJ/hr.m.K)      |kJ/hr.m.K|-|0|1|0.01|5.00|997
   nrsegment= 9.1000000000000E+01
*|Number of segment of heat storage      |-|-|0|1|10|100|997
*
*|]
*
*******************************************************************************
*|[ NRcon | Steel tank water heat storage
CONSTANTS  4
   V_tank = 2.1000000000000E+03
*|Volume of steel tank      |m^3|-|0|1|100|500000|997
   h-d-ratio_tank= 6.6120000000000E-01
*|Height to diameter ratio      |-|-|0|1|0.001|1.0000|997
   UA_tank= 1.0000000000000E+03
*|Overall heat loss cofficient (1 W/K= 3.6 kJ/hr.k)    |kJ/hr.K|-|0|1|0.01|10000.00|997
   nrtanknodes= 1.1000000000000E+01
*|Number of segment of heat storage      |-|-|0|1|10|100|997
*
*|]
*
*|[ NRcon | Heat pump
CONSTANTS  1
   Heatpump_P_kW = 4.7500000000000E+02
*|Power of heat pump      |kW|-|0|1|100|2000.0|997
*|]
*
*|[ NRcon | Condensing boiler and ORC
CONSTANTS  1
   boiler_ORC_Q_kW= 4.4930000000000E+03
*|Power of the boiler+ORC      |kW|-|0|1|1000|20000.0|997
*
*|]
*|[ NRcon | Biooil backup boiler
CONSTANTS  1
  biooil_Qmax_kj_per_h= 3.6000000000000E+07
*|Power of biooil back boiler (1 W= 3.6 kJ/hr)     |kJ/hr|-|0|1|1000000|200000000.0|997
*|]
*
*|[ NRcon | Economy analysis
CONSTANTS  9
  interest_rate_Input= 8.0240000000000E-02
*|Annual_payment_rate (8.024% for a 20 year loan with an annual interest rate of 5%)      |-|-|0|1|0.001|1.00000|997
  Cost_coll1_Krperm2= 1.2000000000000E+03
*|Collector field 1: cost per area      |DKK/m^2|-|0|1|0.1|10000|997
  Cost_coll2_Krperm2= 1.5000000000000E+03
*|Collector field 2: cost per area      |DKK/m^2|-|0|1|0.1|10000|997
  Cost_coll3_Krperm2= 1.5000000000000E+03
*|Collector field 3: cost per area      |DKK/m^2|-|0|1|0.1|10000|997
  cost_pit_pervolume = 1.1000000000000E+02
*|Water pit heat storage: cost per volume        |DKK/m^3|-|0|1|10|10000|997
  cost_tank_pervolume = 7.0000000000000E+02
*|Tank heat storage: cost per volume       |DKK/m^3|-|0|1|100|10000|997
  cost_woodchip_perMWH= 2.0000000000000E+02
*|Cost of heat by woodchip per MWh       |DKK/MWh|-|0|1|10|10000|997
  cost_HP_perMWH= 1.0000000000000E+02
*|Cost of heat by heat pump per MWh       |DKK/MWh|-|0|1|10|10000|997
  cost_biooil_perMWH= 4.0000000000000E+02
*|Cost of heat by biooil per MWh       |DKK/MWh|-|0|1|10|10000|997
*
*|]
*
*******************************************************************************
*** Units 
*******************************************************************************
*
*******************************************************************************
*** Control cards
*******************************************************************************
* START, STOP and STEP
CONSTANTS 3
START=0
STOP=17520
STEP=1
SIMULATION 	 START	 STOP	 STEP	! Start time	End time	Time step
TOLERANCES 0.01 0.01			! Integration	 Convergence
LIMITS 30 30 30				! Max iterations	Max warnings	Trace limit
DFQ 1					! TRNSYS numerical integration solver method
WIDTH 80				! TRNSYS output file width, number of characters
*
LIST 					! NOLIST statement
					! MAP statement
SOLVER 0 1 1				! Solver statement	Minimum relaxation factor	Maximum relaxation factor
NAN_CHECK 0				! Nan DEBUG statement
OVERWRITE_CHECK 0			! Overwrite DEBUG statement
TIME_REPORT 0			! disable time report
EQSOLVER 0				! EQUATION SOLVER statement
* User defined CONSTANTS 
Constants = 15
*
*
*
*
Radiation_factor = 1000 / 988.4
*
*coll2_area =   9124
*coll3_area = 15000
*
*coll2_eta0 = 0.81
*coll3_eta0 = 0.85
*
*coll2_a1 = 2.57 * 3.6
*coll3_a1 = 3.07 * 3.6
*
*coll2_a2 = 0.0079 * 3.6
*coll3_a2 = 0.01 * 3.6
*row_distance = 4.5
*
cp_water = 4.19
cp_glycol = 3.973
*boiler_ORC_Q_kW=3200 * 0.98 + 234 + 1123
Boiler_start = 24 * 280
Boiler_stop = 24 * 160
*Heatpump_P_kW=475
Heat_pump_1_start = 24 * 273
Heat_pump_1_stop = 24 * 91
Heat_pump_2_start = 24 * 273
Heat_pump_2_stop = 24 * 91
*V_pit = 75000
*h-d-ratio_pit = 0.0705
h_pit = (4*(h-d-ratio_pit)^2*V_pit/3.141592654)^(1/3)
d_pit = h_pit/h-d-ratio_pit
A_pit = d_pit^2 * 3.1416/4 + d_pit*3.1416*h_pit
*Thick_insu_pit = 0.5
*Lamda_insu_pit=0.36
*V_tank = 2100
*h-d-ratio_tank = 0.6116
h_tank = (4*(h-d-ratio_tank)^2*V_tank/3.141592654)^(1/3)
d_tank = h_tank/h-d-ratio_tank
A_tank = d_tank^2 * 3.1416/4 + d_tank*3.1416*h_tank
*UA_tank = A_tank * 0.3838*3.6
*biooil_Qmax_kj_per_h=36000000
*Cost_coll1_Krperm2=1500
*Cost_coll2_Krperm2=1500
*Cost_coll3_Krperm2=1500
*cost_pit_pervolume = 110
*cost_tank_pervolume = 700
*interest_rate_Input=0.08024
*
* Model "Elspot" (Type 9)
* 
*
UNIT 33 TYPE 9	 Elspot
*$UNIT_NAME Elspot
*$MODEL .\Utility\Data Readers\Generic Data Files\First Line is Simulation Start\Free Format\Type9a.tmf
*$POSITION -297 702
*$LAYER Weather - Data Files # 
PARAMETERS 58
2		! 1 Mode
3		! 2 Header Lines to Skip
13		! 3 No. of values to read
1.0		! 4 Time interval of data
-1		! 5 Interpolate or not?-1
1.0		! 6 Multiplication factor-1
0		! 7 Addition factor-1
1		! 8 Average or instantaneous value-1
-1		! 9 Interpolate or not?-2
1.0		! 10 Multiplication factor-2
0		! 11 Addition factor-2
1		! 12 Average or instantaneous value-2
-1		! 13 Interpolate or not?-3
1.0		! 14 Multiplication factor-3
0		! 15 Addition factor-3
1		! 16 Average or instantaneous value-3
-1		! 17 Interpolate or not?-4
1.0		! 18 Multiplication factor-4
0		! 19 Addition factor-4
1		! 20 Average or instantaneous value-4
-1		! 21 Interpolate or not?-5
1.0		! 22 Multiplication factor-5
0		! 23 Addition factor-5
1		! 24 Average or instantaneous value-5
-1		! 25 Interpolate or not?-6
1.0		! 26 Multiplication factor-6
0		! 27 Addition factor-6
1		! 28 Average or instantaneous value-6
-1		! 29 Interpolate or not?-7
1.0		! 30 Multiplication factor-7
0		! 31 Addition factor-7
1		! 32 Average or instantaneous value-7
-1		! 33 Interpolate or not?-8
1.0		! 34 Multiplication factor-8
0		! 35 Addition factor-8
1		! 36 Average or instantaneous value-8
-1		! 37 Interpolate or not?-9
1.0		! 38 Multiplication factor-9
0		! 39 Addition factor-9
1		! 40 Average or instantaneous value-9
-1		! 41 Interpolate or not?-10
1.0		! 42 Multiplication factor-10
0		! 43 Addition factor-10
1		! 44 Average or instantaneous value-10
-1		! 45 Interpolate or not?-11
1.0		! 46 Multiplication factor-11
0		! 47 Addition factor-11
1		! 48 Average or instantaneous value-11
-1		! 49 Interpolate or not?-12
1.0		! 50 Multiplication factor-12
0		! 51 Addition factor-12
1		! 52 Average or instantaneous value-12
-1		! 53 Interpolate or not?-13
1.0		! 54 Multiplication factor-13
0		! 55 Addition factor-13
1		! 56 Average or instantaneous value-13
33		! 57 Logical unit for input file
-1		! 58 Free format mode
*** External files
ASSIGN "Inputdata\Elspotpriser2.txt" 33
*|? Input file name |1000
*------------------------------------------------------------------------------
*
* Model "T-forward" (Type 14)
* 
*
UNIT 73 TYPE 14	 T-forward
*$UNIT_NAME T-forward
*$MODEL .\Utility\Forcing Functions\Temperature\Type14e.tmf
*$POSITION -221 702
*$LAYER Weather - Data Files # 
PARAMETERS 12
0		! 1 Initial value of time
T_net_forward		! 2 Initial temperature
1460		! 3 Time at point-1
T_net_forward		! 4 Temperature at point -1
2920		! 5 Time at point-2
T_net_forward		! 6 Temperature at point -2
5110		! 7 Time at point-3
T_net_forward		! 8 Temperature at point -3
6570		! 9 Time at point-4
T_net_forward		! 10 Temperature at point -4
8760		! 11 Time at point-5
T_net_forward		! 12 Temperature at point -5
*------------------------------------------------------------------------------
*
* Model "T-return" (Type 14)
* 
*
UNIT 71 TYPE 14	 T-return
*$UNIT_NAME T-return
*$MODEL .\Utility\Forcing Functions\Temperature\Type14e.tmf
*$POSITION -142 702
*$LAYER Weather - Data Files # 
PARAMETERS 12
0		! 1 Initial value of time
T_net_return		! 2 Initial temperature
2190		! 3 Time at point-1
T_net_return		! 4 Temperature at point -1
4380		! 5 Time at point-2
T_net_return		! 6 Temperature at point -2
5840		! 7 Time at point-3
T_net_return		! 8 Temperature at point -3
7300		! 9 Time at point-4
T_net_return		! 10 Temperature at point -4
8760		! 11 Time at point-5
T_net_return		! 12 Temperature at point -5
*------------------------------------------------------------------------------
*
* Model "Type109-TMY2" (Type 109)
* 
*
UNIT 31 TYPE 109	 Type109-TMY2
*$UNIT_NAME Type109-TMY2
*$MODEL .\Weather Data Reading and Processing\Standard Format\TMY2\Type109-TMY2.tmf
*$POSITION -271 104
*$LAYER Weather - Data Files # 
PARAMETERS 4
2		! 1 Data Reader Mode
32		! 2 Logical unit
4		! 3 Sky model for diffuse radiation
1		! 4 Tracking mode
INPUTS 3
0,0		! [unconnected] Ground reflectance
0,0		! [unconnected] Slope of surface
0,0		! [unconnected] Azimuth of surface
*** INITIAL INPUT VALUES
0.2 collector_slope 0.0 
*** External files
ASSIGN "C:\Users\s192476\Downloads\EKYT_HDD_18C (2).csv" 32
*|? Weather data file |1000
*------------------------------------------------------------------------------
*
* Model "DegDays" (Type 9)
* 
*
UNIT 88 TYPE 9	 DegDays
*$UNIT_NAME DegDays
*$MODEL .\Utility\Data Readers\Generic Data Files\First Line is Simulation Start\Free Format\Type9a.tmf
*$POSITION 758 690
*$LAYER Weather - Data Files # 
PARAMETERS 10
2		! 1 Mode
1		! 2 Header Lines to Skip
1		! 3 No. of values to read
24		! 4 Time interval of data
-1		! 5 Interpolate or not?
1.0		! 6 Multiplication factor
0		! 7 Addition factor
1		! 8 Average or instantaneous value
37		! 9 Logical unit for input file
-1		! 10 Free format mode
*** External files
ASSIGN "Inputdata\DegreeDays.txt" 37
*|? Input file name |1000
*------------------------------------------------------------------------------
*
* Model "Delay-4" (Type 93)
* 
*
UNIT 103 TYPE 93	 Delay-4
*$UNIT_NAME Delay-4
*$MODEL .\Utility\Input Value Recall\Type93.tmf
*$POSITION 217 113
*$LAYER Controls # 
PARAMETERS 2
1		! 1 Number of inputs to be stored
1		! 2 Number of timesteps to be stored
INPUTS 1
0,0		! [unconnected] Input value
*** INITIAL INPUT VALUES
0 
*------------------------------------------------------------------------------
*
* EQUATIONS "Dummy"
* 
EQUATIONS 1
Dummy = 0
*$UNIT_NAME Dummy
*$LAYER BTES
*$POSITION 466 50
*
*------------------------------------------------------------------------------
*
*
* EQUATIONS "Investment"
* 
EQUATIONS 23
Inv_collectors1 = Cost_coll1_Krperm2 * (Coll1_area)+500000*min(Coll1_area,1)
Inv_collectors2 = Cost_coll2_Krperm2 * (Coll2_area)+500000*min(Coll2_area,1)
Inv_collectors3 = Cost_coll3_Krperm2 * (Coll3_area)+500000*min(Coll3_area,1)
Inv_pit = (12300000 + cost_pit_pervolume * V_pit )*1+0*min(Coll1_area+Coll2_area+Coll3_area,1)
Inv_tank = cost_tank_pervolume *V_tank+1500000
Inv_ground = 220 * 50000
Inv_central = 6500000 +0* min(Coll1_area+Coll2_area+Coll3_area,1)
Inv_hp = (2800000 * Heatpump_P_kW/1000+ 300000 )  *min(Heatpump_P_kW*1000*3.6,1)
Inv_abs = 0.0   
Inv_boiler = boiler_ORC_Q_kW/1000 * (17000000-3000000) /(2+6)+3000000
Inv_aux = biooil_Qmax_kj_per_h / 3.6e6 *112000+857000
Investment_total = Inv_collectors1+Inv_collectors2+Inv_collectors3 + Inv_pit+Inv_tank + Inv_ground + Inv_central   + Inv_hp + Inv_abs + Inv_boiler + Inv_aux
interest_rate = interest_rate_2p5
interest_rate_1p0 = 0.05542
interest_rate_1p5 = 0.05825
interest_rate_2p0 = 0.06116
interest_rate_2p5 = 0.06415
interest_rate_3p0 = 0.06772
interest_rate_3p5 = 0.07036
interest_rate_4p0 = 0.07358
interest_rate_4p5 = 0.07688
interest_rate_5p0 = 0.08024
Financial_costs = Investment_total*interest_rate_Input
*$UNIT_NAME Investment
*$LAYER Main
*$POSITION 746 187
*
*------------------------------------------------------------------------------
*
*
* EQUATIONS "Global"
* 
EQUATIONS 4
T_ambient = [31,1]
T_forward = [73,2]
T_return = [71,2]
Elspot_hours = [33,13]
*$UNIT_NAME Global
*$LAYER Controls
*$POSITION -220 622
*
*------------------------------------------------------------------------------
*
*
* Model "9.000 m2" (Type 1)
* 
*
UNIT 3 TYPE 1	 9.000 m2
*$UNIT_NAME 9.000 m2
*$MODEL .\Solar Thermal Collectors\Quadratic Efficiency Collector\2nd-Order Incidence Angle Modifiers\Type1b.tmf
*$POSITION -167 176
*$LAYER Water Loop # 
PARAMETERS 11
20		! 1 Number in series
coll1_area		! 2 Collector area
cp_glycol		! 3 Fluid specific heat
2		! 4 Efficiency mode
72		! 5 Tested flow rate
coll1_eta0		! 6 Intercept efficiency
coll1_a1		! 7 Efficiency slope
coll1_a2		! 8 Efficiency curvature
2		! 9 Optical mode 2
0.1008		! 10 1st-order IAM
0.0		! 11 2nd-order IAM
INPUTS 9
HX1_WS_T_out		! HX-1:HX1_WS_T_out ->Inlet temperature
Pump_1_m		! Pump-1:Pump_1_m ->Inlet flowrate
31,1 		! Type109-TMY2:Ambient temperature ->Ambient temperature
shadow_rad_total		! Shadow:shadow_rad_total ->Incident radiation
0,0		! [unconnected] Total horizontal radiation
0,0		! [unconnected] Horizontal diffuse radiation
0,0		! [unconnected] Ground reflectance
31,22 		! Type109-TMY2:angle of incidence for tilted surface  ->Incidence angle
31,23 		! Type109-TMY2:slope of tilted surface ->Collector slope
*** INITIAL INPUT VALUES
20.0 100.0 10.0 0. 0.0 0.0 0.2 45.0 0. 
*------------------------------------------------------------------------------
*
* EQUATIONS "Shadow"
* 
EQUATIONS 6
field_slope = 0
collector_height = 2.275
shadow_angle = atan( sin( collector_slope - field_slope )  / max( 1e-6 , row_distance/collector_height * 2/cos(field_slope)  - cos( collector_slope - field_slope ) ) ) - field_slope
shadow_rad_beam = [31,19]  * max( 0 , min( 1 , row_distance / collector_height  / cos( field_slope ) * sin( 90 - [31,10] + field_slope )  / max( 1e-6 , sin( 90 - [31,10] + collector_slope ) ) ) )
shadow_rad_diffuse = [31,20]  * max( 0 , min( 1 , ( 180 - collector_slope - shadow_angle )  / max( 1e-6 , 180 - collector_slope ) ) )
shadow_rad_total = Radiation_factor * ( shadow_rad_beam + shadow_rad_diffuse )
*$UNIT_NAME Shadow
*$LAYER Weather - Data Files
*$POSITION -272 175
*
*------------------------------------------------------------------------------
*
*
* Model "9.300 m2" (Type 1)
* 
*
UNIT 47 TYPE 1	 9.300 m2
*$UNIT_NAME 9.300 m2
*$MODEL .\Solar Thermal Collectors\Quadratic Efficiency Collector\2nd-Order Incidence Angle Modifiers\Type1b.tmf
*$POSITION -172 319
*$LAYER Water Loop # 
PARAMETERS 11
20		! 1 Number in series
coll2_area		! 2 Collector area
cp_glycol		! 3 Fluid specific heat
2		! 4 Efficiency mode
72		! 5 Tested flow rate
coll2_eta0		! 6 Intercept efficiency
coll2_a1		! 7 Efficiency slope
coll2_a2		! 8 Efficiency curvature
2		! 9 Optical mode 2
0.1008		! 10 1st-order IAM
0.0		! 11 2nd-order IAM
INPUTS 9
HX2_WS_T_out		! HX-2:HX2_WS_T_out ->Inlet temperature
Pump_2_m		! Pump-2:Pump_2_m ->Inlet flowrate
31,1 		! Type109-TMY2:Ambient temperature ->Ambient temperature
shadow_rad_total		! Shadow:shadow_rad_total ->Incident radiation
0,0		! [unconnected] Total horizontal radiation
0,0		! [unconnected] Horizontal diffuse radiation
0,0		! [unconnected] Ground reflectance
31,22 		! Type109-TMY2:angle of incidence for tilted surface  ->Incidence angle
31,23 		! Type109-TMY2:slope of tilted surface ->Collector slope
*** INITIAL INPUT VALUES
20.0 100.0 10.0 0. 0.0 0.0 0.2 45.0 0. 
*------------------------------------------------------------------------------
*
* Model "15.000 m2" (Type 1)
* 
*
UNIT 54 TYPE 1	 15.000 m2
*$UNIT_NAME 15.000 m2
*$MODEL .\Solar Thermal Collectors\Quadratic Efficiency Collector\2nd-Order Incidence Angle Modifiers\Type1b.tmf
*$POSITION -172 463
*$LAYER Water Loop # 
PARAMETERS 11
20		! 1 Number in series
coll3_area		! 2 Collector area
cp_glycol		! 3 Fluid specific heat
2		! 4 Efficiency mode
72		! 5 Tested flow rate
coll3_eta0		! 6 Intercept efficiency
coll3_a1		! 7 Efficiency slope
coll3_a2		! 8 Efficiency curvature
2		! 9 Optical mode 2
0.1008		! 10 1st-order IAM
0.0		! 11 2nd-order IAM
INPUTS 9
HX3_WS_T_out		! HX-3:HX3_WS_T_out ->Inlet temperature
Pump_3_m		! Pump-3:Pump_3_m ->Inlet flowrate
31,1 		! Type109-TMY2:Ambient temperature ->Ambient temperature
shadow_rad_total		! Shadow:shadow_rad_total ->Incident radiation
0,0		! [unconnected] Total horizontal radiation
0,0		! [unconnected] Horizontal diffuse radiation
0,0		! [unconnected] Ground reflectance
31,22 		! Type109-TMY2:angle of incidence for tilted surface  ->Incidence angle
31,23 		! Type109-TMY2:slope of tilted surface ->Collector slope
*** INITIAL INPUT VALUES
20.0 100.0 10.0 0. 0.0 0.0 0.2 45.0 0. 
*------------------------------------------------------------------------------
*
* EQUATIONS "Heat-load"
* 
EQUATIONS 7
Load_MWh_pr_year = demand_net
GAF_ratio = 0.709
DegHours_pr_year = Deghours_sum
GUF_MW = ( 1 - GAF_ratio ) * Load_MWh_pr_year / 8760
GAF_MW = GAF_ratio * Load_MWh_pr_year * [88,1] / DegHours_pr_year
Load_kJ_pr_h = ( GUF_MW + GAF_MW ) * 3.6e6
Load_m = Load_kJ_pr_h / cp_water / max( 1 , T_forward - T_return )
*$UNIT_NAME Heat-load
*$LAYER Water Loop
*$POSITION 503 701
*
*------------------------------------------------------------------------------
*
*
* Model "CO2-HP" (Type 65)
* 
*
UNIT 81 TYPE 65	 CO2-HP
*$UNIT_NAME CO2-HP
*$MODEL .\Output\Online Plotter\Online Plotter Without File\Type65d.tmf
*$POSITION 258 697
*$LAYER Outputs # 
PARAMETERS 12
10		! 1 Nb. of left-axis variables
10		! 2 Nb. of right-axis variables
0.0		! 3 Left axis minimum
1000.0		! 4 Left axis maximum
0.0		! 5 Right axis minimum
10		! 6 Right axis maximum
2		! 7 Number of plots per simulation
12		! 8 X-axis gridpoints
0		! 9 Shut off Online w/o removing
-1		! 10 Logical unit for output file
0		! 11 Output file units
0		! 12 Output file delimiter
INPUTS 20
VP_varm_T_ud		! HP-CO2:VP_varm_T_ud ->Left axis variable-1
VP_varm_m		! HP-CO2:VP_varm_m ->Left axis variable-2
VP_kold_T_ud		! HP-CO2:VP_kold_T_ud ->Left axis variable-3
VP_kold_m		! HP-CO2:VP_kold_m ->Left axis variable-4
VP_ON		! HP-CO2:VP_ON ->Left axis variable-5
VP_P_kW		! HP-CO2:VP_P_kW ->Left axis variable-6
VP_P_kJ_pr_h		! HP-CO2:VP_P_kJ_pr_h ->Left axis variable-7
VP_P		! HP-CO2:VP_P ->Left axis variable-8
VP_COP_varm		! HP-CO2:VP_COP_varm ->Left axis variable-9
VP_Q_varm_nom		! HP-CO2:VP_Q_varm_nom ->Left axis variable-10
VP_Q_kold		! HP-CO2:VP_Q_kold ->Right axis variable-1
Boiler_T_out		! Cond. and ORC:Boiler_T_out ->Right axis variable-2
Load_MWh_pr_year		! Heat-load:Load_MWh_pr_year ->Right axis variable-3
GAF_ratio		! Heat-load:GAF_ratio ->Right axis variable-4
Load_m		! Heat-load:Load_m ->Right axis variable-5
DegHours_pr_year		! Heat-load:DegHours_pr_year ->Right axis variable-6
GUF_MW		! Heat-load:GUF_MW ->Right axis variable-7
GAF_MW		! Heat-load:GAF_MW ->Right axis variable-8
88,1 		! DegDays:Output 1 ->Right axis variable-9
load_Q		! MW-prod.:load_Q ->Right axis variable-10
*** INITIAL INPUT VALUES
VP_varm_T_ud VP_varm_m VP_kold_T_ud VP_kold_m Varmepumpe_ON VP_P_kW
VP_P_kJ_pr_h VP_P VP_COP_varm VP_Q_varm VP_Q_kold Boiler_T_out MWh_pr_year
GAF Load_m DegDays_avg GUF_MW GAF_MW DegDays load_Q 
LABELS  3
"Temperatures"
"Heat transfer rates"
"CO2 heat pump"
*------------------------------------------------------------------------------
*
* EQUATIONS "Advansed"
* 
EQUATIONS 2
HX_5_m = 70000 * max( 0 , min( 1 ,  ( [103,1] - [80,3] - 5 ) / 2 ) )
HX_6_m = ( 70000 - HX_5_m ) * max( 0 , min( 1 ,  ( [80,4] - [80,3] - 5 ) / 2 ) )
*$UNIT_NAME Advansed
*$LAYER Controls
*$POSITION 153 360
*
*------------------------------------------------------------------------------
*
*
* EQUATIONS "MW-stores"
* 
EQUATIONS 12
s1_l1_Q = 0! s1_l1_m * cp_water * ( s1_l1_Tout - s1_l1_Tin ) / 3.6e6
s1_l2_Q = 0! s1_l2_m * cp_water * ( s1_l2_Tout - s1_l2_Tin ) / 3.6e6
s1_l3_Q = 0! s1_l3_m * cp_water * ( s1_l3_Tout - s1_l3_Tin ) / 3.6e6
s2_l1_Q = [52,2] * cp_water * ( [52,1] - HX3_CS_T_out ) / 3.6e6
s2_l2_Q = [52,7] * cp_water * ( [52,6] - HX6_WS_T_out ) / 3.6e6
s2_l3_Q = [52,12] * cp_water * ( [52,11] - VP_kold_T_ud ) / 3.6e6
s2_l4_Q = [52,17] * cp_water * ( [52,16] - Dummy ) / 3.6e6
s3_l1_Q = [72,2] * cp_water * ( [72,1] - [97,1] ) / 3.6e6
s3_l2_Q = [72,4] * cp_water * ( [72,3] - [97,3] ) / 3.6e6
s3_l3_Q = [72,6] * cp_water * ( [72,5] - [86,1] ) / 3.6e6
s3_l4_Q = [72,8] * cp_water * ( [72,7] - [101,1] ) / 3.6e6
s3_l5_Q = [72,10] * cp_water * ( [72,9] - ORC_T_out ) / 3.6e6
*$UNIT_NAME MW-stores
*$LAYER BTES
*$POSITION 583 61
*
*------------------------------------------------------------------------------
*
*
* EQUATIONS "Cost-function"
* 
EQUATIONS 2
Operational_costs = colls * 7.5  + woodchips * cost_woodchip_perMWH  + heatpumps_e * cost_HP_perMWH  + biooil * cost_biooil_perMWH
Heat_price = ( Operational_costs + Financial_costs ) / Load_MWh_pr_year
*$UNIT_NAME Cost-function
*$LAYER BTES
*$POSITION 754 611
*
*------------------------------------------------------------------------------
*
*
* Model "75.000 m3" (Type 342)
* 
*
UNIT 52 TYPE 342	 75.000 m3
*$UNIT_NAME 75.000 m3
*$MODEL \Trnsys16_1\Studio\Proformas\nostand\XST\TYPE342.tmf
*$POSITION 145 459
*$LAYER Storages # 
PARAMETERS 58
0		! 1 imode
nrsegment		! 2 segments
1		! 3 iconv
4		! 4 Nflow
0		! 5 NPin-1
1		! 6 NPout-1
11		! 7 Joutj-1
0		! 8 NPin-2
1		! 9 NPout-2
1		! 10 Joutj-2
0		! 11 NPin-3
1		! 12 NPout-3
6		! 13 Joutj-3
0		! 14 NPin-4
1		! 15 NPout-4
11		! 16 Joutj-4
V_pit		! 17 Volumne
h_pit		! 18 Height
0		! 19 Top Depth
2.3		! 20 Storage Conductivity
4096		! 21 Storage Heat Capacity
0.000001		! 22 Minimum Velocity
10000000		! 23 Max Flowrate
cp_water		! 24 Fluid Heat Capacity
980		! 25 Fluid Density
0		! 26 Dispersion Length
1		! 27 Darcy Exponent
Thick_insu_pit		! 28 Insulation Thickness
1		! 29 Top Fraction
0		! 30 Side Fraction
0		! 31 Bottom Fraction
Lamda_insu_pit		! 32 Insulation Conductivity
3		! 33 Number of Years
200		! 34 Max Temperature
10		! 35 Initial Storage Temp
8		! 36 Initial Ground Temp
0.03		! 37 Init. Thermal Gradient
0		! 38 No of Preheat Cycles
0		! 39 Max Preheat Temp
0		! 40 Min Preheat Temp
0		! 41 Preheat Phase Time
10		! 42 Average Annual Air Temp
20		! 43 Temp Ampitude
365		! 44 Air Temp Phase Time
1		! 45 Layers
8.28		! 46 Layer Conductivity
2300		! 47 Layer Heat Capacity
100		! 48 Layer Thickness
1		! 49 iPRT
0		! 50 oPRT
50		! 51 LUW
0		! 52 IP1
0		! 53 Print Time Interval 1
0		! 54 IP2
0		! 55 Print Time INterval 2
0		! 56 IP3
0		! 57 Print Time Interval 3
0		! 58 NT
INPUTS 9
HX3_CS_T_out		! HX-3:HX3_CS_T_out ->Inlet Fluid Temperature-1
HX3_CS_m_out		! HX-3:HX3_CS_m_out ->Inlet Mass Flowrate-1
HX6_WS_T_out		! HX-6:HX6_WS_T_out ->Inlet Fluid Temperature-2
HX6_WS_m_out		! HX-6:HX6_WS_m_out ->Inlet Mass Flowrate-2
VP_kold_T_ud		! HP-CO2:VP_kold_T_ud ->Inlet Fluid Temperature-3
VP_kold_m		! HP-CO2:VP_kold_m ->Inlet Mass Flowrate-3
HX7_CS_T_out		! HX-7:HX7_CS_T_out ->Inlet Fluid Temperature-4
HX7_CS_m_out		! HX-7:HX7_CS_m_out ->Inlet Mass Flowrate-4
T_ambient		! Global:T_ambient ->Ambient Temperature
*** INITIAL INPUT VALUES
40 1 40 1 40 1 40 1 10 
*** External files
ASSIGN "***.TYPE142out" 50
*|? name of output file for iPRT and/or oPRT special printing |1000
*------------------------------------------------------------------------------
*
* Model "Biooil" (Type 6)
* 
*
UNIT 58 TYPE 6	 Biooil
*$UNIT_NAME Biooil
*$MODEL .\HVAC\Auxiliary Heaters\Type6.tmf
*$POSITION 614 701
*$LAYER Water Loop # 
PARAMETERS 4
Biooil_Qmax_kJ_per_h		! 1 Maximum heating rate
cp_water		! 2 Specific heat of fluid
0.0		! 3 Overall loss coefficient for heater during operation
1.0		! 4 Efficiency of auxiliary heater
INPUTS 5
37,1 		! Tee-1:Outlet temperature ->Inlet fluid temperature
37,2 		! Tee-1:Outlet flow rate ->Fluid mass flow rate
0,0		! [unconnected] Control Function
T_forward		! Global:T_forward ->Set point temperature
0,0		! [unconnected] Temperature of surroundings
*** INITIAL INPUT VALUES
20.0 100.0 1 60.0 20.0 
*------------------------------------------------------------------------------
*
* Model "2.100 m3" (Type 340)
* 
*
UNIT 72 TYPE 340	 2.100 m3
*$UNIT_NAME 2.100 m3
*$MODEL .\Thermal Storage\Seasonal Storage\type340.tmf
*$POSITION 596 342
*$LAYER Storages # 
*$# Simulates stratified fluid storage with 3
*$# internal heat exchangers, 5 connections
*$# for direct charge and discharge and an
*$# internal electrical heater.
*$# 
*$# 
*$# 
*$# 
*$# 
*$# 
*$# 
*$# 
*$# 
*$# 
*$# 
*$# 
*$# 
*$# 
*$# 
*$# 
*$# 
*$# 
*$# 
*$# 
*$# 
*$# 
*$# 
*$# 
*$# 
*$# 
PARAMETERS 82
H_tank		! 1 storage height
V_tank		! 2 storage volume
cp_water		! 3 spec. heat capacity of the fluid in the storage
992.42		! 4 density of the fliud in the storage
4.49		! 5 effective thermal conductivity in the storage
3		! 6 number of heat exchangers (fixed)
30		! 7 initial temerpature of the whole system
0		! 8 bottom heat loss capacity rate
0		! 9 top heat loss capacity rate
-1		! 10 rel. length of 1. zone
1000		! 11 For 1. Zone heat loss capacity rate from storage to ambient
0		! 12 rel. length of 2. zone
0		! 13 For 2. Zone heat capacity rate from storage to ambient
0		! 14 rel. length of 3. zone
0		! 15 For 3. zone heat capacity rate from storage to ambient
0		! 16 For 4. zone heat capacity rate from storage to ambient
0		! 17 rel. height of inlet postition from doubleport -1
1		! 18 rel. heigth of outlet position from doubleport-1
1		! 19 stratified charging with doubleport(=1)-1
0		! 20 rel. height of inlet postition from doubleport -2
0.5		! 21 rel. heigth of outlet position from doubleport-2
1		! 22 stratified charging with doubleport(=1)-2